[Format]      =  4.0
[Frequency]   =  0.5
[Precision]   =  1e-008
[MinAngle]    =  30
[Depth]       =  250
[LengthUnits] =  millimeters
[ProblemType] =  planar
[Coordinates] =  cartesian
[ACSolver]    =  0
[Comment]     =  "Add comments here."
[PointProps]   = 0
[BdryProps]   = 1
  <BeginBdry>
    <BdryName> = "carcasa"
    <BdryType> = 0
    <A_0> = 0
    <A_1> = 0
    <A_2> = 0
    <Phi> = 0
    <c0> = 0
    <c0i> = 0
    <c1> = 0
    <c1i> = 0
    <Mu_ssd> = 0
    <Sigma_ssd> = 0
  <EndBdry>
[BlockProps]  = 5
  <BeginBlock>
    <BlockName> = "Air"
    <Mu_x> = 1
    <Mu_y> = 1
    <H_c> = 0
    <H_cAngle> = 0
    <J_re> = 0
    <J_im> = 0
    <Sigma> = 0
    <d_lam> = 0
    <Phi_h> = 0
    <Phi_hx> = 0
    <Phi_hy> = 0
    <LamType> = 0
    <LamFill> = 1
    <NStrands> = 0
    <WireD> = 0
    <BHPoints> = 0
  <EndBlock>
  <BeginBlock>
    <BlockName> = "Silicon Iron Idel"
    <Mu_x> = 7000
    <Mu_y> = 7000
    <H_c> = 0
    <H_cAngle> = 0
    <J_re> = 0
    <J_im> = 0
    <Sigma> = 0
    <d_lam> = 0
    <Phi_h> = 0
    <Phi_hx> = 0
    <Phi_hy> = 0
    <LamType> = 0
    <LamFill> = 1
    <NStrands> = 0
    <WireD> = 0
    <BHPoints> = 35
      0	0
      0.076137999999999997	27.383403999999999
      0.14288999999999999	31.395700000000001
      0.21798000000000001	36.490250000000003
      0.30552000000000001	42.403651000000004
      0.39304	48.938552999999999
      0.48466999999999999	55.704230000000003
      0.58045000000000002	63.402555
      0.68454999999999999	72.654231999999993
      0.77612999999999999	81.009866000000002
      0.85528000000000004	90.965007999999997
      0.91776999999999997	100.076628
      0.97614000000000001	110.875291
      1.0510999999999999	124.506912
      1.1262000000000001	144.71163200000001
      1.1930000000000001	168.210859
      1.2515000000000001	195.55367899999999
      1.3058000000000001	225.79311799999999
      1.3476999999999999	260.75150100000002
      1.3937999999999999	309.50861800000001
      1.4316	367.41714400000001
      1.4694	436.172079
      1.4990000000000001	525.02828399999999
      1.5244	636.38899800000002
      1.5414000000000001	745.35442899999998
      1.5626	897.31556899999998
      1.5839000000000001	1095.1451629999999
      1.6094999999999999	1402.632513
      1.6267	1771.9515590000001
      1.6479999999999999	2223.0762450000002
      1.6652	2713.5122019999999
      1.6822999999999999	3335.0122550000001
      1.7036	4042.6151319999999
      1.7205999999999999	4767.5658979999998
      1.7377	5779.3934479999998
  <EndBlock>
  <BeginBlock>
    <BlockName> = "Copper"
    <Mu_x> = 1
    <Mu_y> = 1
    <H_c> = 0
    <H_cAngle> = 0
    <J_re> = 0
    <J_im> = 0
    <Sigma> = 58
    <d_lam> = 0
    <Phi_h> = 0
    <Phi_hx> = 0
    <Phi_hy> = 0
    <LamType> = 0
    <LamFill> = 1
    <NStrands> = 0
    <WireD> = 0
    <BHPoints> = 0
  <EndBlock>
  <BeginBlock>
    <BlockName> = "Hierro para Maquinas"
    <Mu_x> = 1
    <Mu_y> = 1
    <H_c> = 0
    <H_cAngle> = 0
    <J_re> = 0
    <J_im> = 0
    <Sigma> = 6
    <d_lam> = 0.5
    <Phi_h> = 20
    <Phi_hx> = 0
    <Phi_hy> = 0
    <LamType> = 0
    <LamFill> = 0.97999999999999998
    <NStrands> = 0
    <WireD> = 0
    <BHPoints> = 8
      0	0
      0.80000000000000004	100
      1	180
      1.2	300
      1.3999999999999999	550
      1.6000000000000001	2500
      1.8	8000
      2	25000
  <EndBlock>
  <BeginBlock>
    <BlockName> = "Ale_Rotor"
    <Mu_x> = 1
    <Mu_y> = 1
    <H_c> = 0
    <H_cAngle> = 0
    <J_re> = 0
    <J_im> = 0
    <Sigma> = 35
    <d_lam> = 0
    <Phi_h> = 0
    <Phi_hx> = 0
    <Phi_hy> = 0
    <LamType> = 0
    <LamFill> = 1
    <NStrands> = 0
    <WireD> = 0
    <BHPoints> = 0
  <EndBlock>
[CircuitProps]  = 5
  <BeginCircuit>
    <CircuitName> = "A"
    <TotalAmps_re> = 2
    <TotalAmps_im> = 0
    <CircuitType> = 1
  <EndCircuit>
  <BeginCircuit>
    <CircuitName> = "rotor"
    <TotalAmps_re> = 1
    <TotalAmps_im> = 0
    <CircuitType> = 1
  <EndCircuit>
  <BeginCircuit>
    <CircuitName> = "B"
    <TotalAmps_re> = -1
    <TotalAmps_im> = 1.732
    <CircuitType> = 1
  <EndCircuit>
  <BeginCircuit>
    <CircuitName> = "C"
    <TotalAmps_re> = -1
    <TotalAmps_im> = -1.732
    <CircuitType> = 1
  <EndCircuit>
  <BeginCircuit>
    <CircuitName> = "D"
    <TotalAmps_re> = 0
    <TotalAmps_im> = 0
    <CircuitType> = 1
  <EndCircuit>
[NumPoints] = 73
0	0	0	0
0	50	0	2
0	52.5	0	0
0	30	0	2
0	47.5	0	2
0	55	0	0
0	72.5	0	0
0	90	0	0
-6.1230317691118863e-015	-50	0	2
-6.4291833575674806e-015	-52.5	0	0
-3.6738190614671318e-015	-30	0	2
-5.8168801806562912e-015	-47.5	0	2
-6.7353349460230749e-015	-55	0	0
-8.8783960652122351e-015	-72.5	0	0
-1.1021457184401395e-014	-90	0	0
-7.178940572102837	54.52946737555957	0	0
-9.4631489359537397	71.879752449601256	0	0
7.178940572102837	54.52946737555957	0	0
9.4631489359537397	71.879752449601256	0	0
-2.7476377027545511	52.428050574615128	0	0
2.7476377027545511	52.428050574615128	0	0
-45.466333698683023	26.250000000000007	0	0
-47.631397208144122	27.500000000000007	0	0
-62.786841774371801	36.250000000000007	0	0
-50.81337428812077	21.047588780079945	0	0
-66.981266107068294	27.744548846469016	0	0
-43.634433716017924	33.481878595479643	0	0
-57.518117171114547	44.135203603132254	0	0
-46.777842519889305	23.834501236326215	0	0
-44.030204817134759	28.593549338288927	0	0
45.466333698683023	26.250000000000007	0	0
47.631397208144122	27.500000000000007	0	0
62.786841774371801	36.250000000000007	0	0
43.634433716017924	33.481878595479643	0	0
57.518117171114547	44.135203603132254	0	0
50.81337428812077	21.047588780079945	0	0
66.981266107068294	27.744548846469016	0	0
44.030204817134759	28.593549338288927	0	0
46.777842519889305	23.834501236326215	0	0
-45.46633369868303	-26.249999999999989	0	0
-47.631397208144129	-27.499999999999989	0	0
-62.786841774371808	-36.249999999999986	0	0
-43.634433716017938	-33.481878595479621	0	0
-57.518117171114554	-44.135203603132233	0	0
-50.81337428812077	-21.047588780079927	0	0
-66.981266107068294	-27.744548846468994	0	0
-44.030204817134766	-28.593549338288909	0	0
-46.777842519889312	-23.834501236326197	0	0
7.1789405721028299	-54.52946737555957	0	0
9.4631489359537309	-71.879752449601256	0	0
-7.1789405721028441	-54.52946737555957	0	0
-9.4631489359537486	-71.879752449601256	0	0
2.7476377027545449	-52.428050574615128	0	0
-2.7476377027545573	-52.428050574615128	0	0
45.46633369868303	-26.249999999999989	0	0
47.631397208144129	-27.499999999999989	0	0
62.786841774371808	-36.249999999999986	0	0
50.81337428812077	-21.047588780079927	0	0
66.981266107068294	-27.744548846468994	0	0
43.634433716017938	-33.481878595479621	0	0
57.518117171114554	-44.135203603132233	0	0
46.777842519889312	-23.834501236326197	0	0
44.030204817134766	-28.593549338288909	0	0
-4.1398977805137624	47.319248159357912	0	2
-2.614672282429745	29.885840942752367	0	2
4.1398977805137624	47.319248159357912	0	2
2.614672282429745	29.885840942752367	0	2
4.1398977805137527	-47.319248159357912	0	2
2.6146722824297406	-29.88584094275237	0	2
-4.1398977805137704	-47.319248159357912	0	2
-2.6146722824297477	-29.885840942752367	0	2
0	-51.25	0	0
0	51.25	0	0
[NumSegments] = 32
15	16	-1	0	0	0
17	18	-1	0	0	0
19	15	-1	0	0	0
20	17	-1	0	0	0
24	25	-1	0	0	0
26	27	-1	0	0	0
28	24	-1	0	0	0
29	26	-1	0	0	0
33	34	-1	0	0	0
35	36	-1	0	0	0
37	33	-1	0	0	0
38	35	-1	0	0	0
42	43	-1	0	0	0
44	45	-1	0	0	0
46	42	-1	0	0	0
47	44	-1	0	0	0
48	49	-1	0	0	0
50	51	-1	0	0	0
52	48	-1	0	0	0
53	50	-1	0	0	0
57	58	-1	0	0	0
59	60	-1	0	0	0
61	57	-1	0	0	0
62	59	-1	0	0	0
63	64	-1	0	0	0
65	66	-1	0	0	0
63	1	-1	0	0	0
65	1	-1	0	0	0
67	68	-1	0	0	0
69	70	-1	0	0	0
67	8	-1	0	0	0
69	8	-1	0	0	0
[NumArcSegments] = 38
66	3	5.0000000000000009	5	0	0	0
9	52	2.9999999999999982	5	0	0	0
52	62	53.999999999999979	5	0	0	0
62	54	2.9999999999999951	5	0	0	0
54	61	2.9999999999999947	5	0	0	0
61	38	53.999999999999957	5	0	0	0
38	30	2.9999999999999982	5	0	0	0
30	37	2.9999999999999907	5	0	0	0
37	20	53.999999999999957	5	0	0	0
20	2	2.9999999999999996	5	0	0	0
13	49	7.5000000000000044	5	0	0	0
60	56	7.5000000000000053	5	0	0	0
56	58	7.5000000000000062	5	0	0	0
36	32	7.500000000000008	5	0	0	0
32	34	7.5000000000000044	5	0	0	0
18	6	7.4999999999999991	5	0	0	0
14	7	180	5	1	0	0
3	64	5	5	0	0	0
2	19	3.0000000000000004	5	0	0	0
19	29	53.999999999999964	5	0	0	0
29	21	2.9999999999999942	5	0	0	0
21	28	2.9999999999999947	5	0	0	0
28	47	53.999999999999972	5	0	0	0
47	39	2.9999999999999982	5	0	0	0
39	46	2.9999999999999911	5	0	0	0
46	53	53.999999999999979	5	0	0	0
53	9	2.9999999999999987	5	0	0	0
6	16	7.5000000000000009	5	0	0	0
27	23	7.5000000000000036	5	0	0	0
23	25	7.5000000000000053	5	0	0	0
45	41	7.5000000000000053	5	0	0	0
41	43	7.5000000000000133	5	0	0	0
51	13	7.5000000000000098	5	0	0	0
7	14	180	5	1	0	0
70	10	5.0000000000000009	5	0	0	0
10	68	5	5	0	0	0
72	71	180	5	0	0	0
71	72	180	5	0	0	0
[NumHoles] = 0
[NumBlockLabels] = 11
0	62.5	3	-1	1	0	0	400	0
-55	30	3	-1	4	0	0	-400	0
-55	-32.5	3	-1	3	0	0	400	0
0	-65	3	-1	1	0	0	-400	0
55	-32.5	3	-1	4	0	0	400	0
55	32.5	3	-1	3	0	0	-400	0
2.4999999999999987	20	4	-1	0	0	0	1	0
29.999999999999996	65	2	-1	0	0	0	1	0
6.7999999999999998	51	1	-1	0	0	0	1	0
0.50000000000000244	-39	5	-1	2	0	2	-50	0
1.4999999999999976	40	5	-1	2	0	2	50	0
